data_NaCl
_symmetry_space_group_name_H-M   'F m -3 m'
_symmetry_Int_Tables_number      225
_cell_length_a                   5.6402
_cell_length_b                   5.6402
_cell_length_c                   5.6402
_cell_angle_alpha                90
_cell_angle_beta                 90
_cell_angle_gamma                90

loop_
_symmetry_equiv_pos_as_xyz
  'x, y, z'
  '-x, -y, -z'
  'y, x, -z'
  '-y, -x, z'
  'z, -y, -x'
  '-z, y, x'
  'x, -z, y'
  '-x, z, -y'
  'y, -z, -x'
  '-y, z, x'
  'z, x, y'
  '-z, -x, -y'

loop_
_atom_site_label
_atom_site_type_symbol
_atom_site_fract_x
_atom_site_fract_y
_atom_site_fract_z
Na1 Na 0.00000 0.00000 0.00000
Cl1 Cl 0.50000 0.50000 0.50000
